ipss.tutorial/testData/psse/Texas2k/Texas2k_series24_case1_2016summerPeak_v30.RAW
0,   100.00, 30, 0, 1,  60.00     / PSS(R)E 30 RAW created by rawd30  MON, MAR 31 2025  20:02
TEXAS2K_SERIES24_CASE1_2016SUMMERPEAK
THIS IS A SYNTHETIC POWER SYSTEM MODEL THAT DOES NOT REPRESE
  1001,'ODESSA 2 0  ', 115.0000,1,     0.000,     0.000,   1,   9,0.98799, -27.0289,   1
  1002,'PRESIDIO 2 0', 115.0000,1,     0.000,     0.000,   1,   9,1.02280, -21.7241,   1
  1003,'O DONNELL ~1', 115.0000,1,     0.000,     0.000,   1,   9,1.01279, -24.4193,   1
  1004,'O DONNELL ~2', 230.0000,2,     0.000,     0.000,   1,   9,1.01916, -25.9937,   1
  1005,'BIG SPRING~8', 115.0000,1,     0.000,     0.000,   1,   9,1.01072, -20.5321,   1
  1006,'BIG SPRING~9',  13.8000,2,     0.000,     0.000,   1,   9,1.00431, -18.3788,   1
  1007,'VAN HORN 0  ', 115.0000,1,     0.000,     0.000,   1,   9,1.03000, -22.1833,   1
  1008,'IRAAN 2 0   ', 115.0000,1,     0.000,     0.000,   1,   9,1.02503, -11.8731,   1
  1009,'IRAAN 2 1   ',  13.8000,2,     0.000,     0.000,   1,   9,1.01506,  -8.6148,   1
  1010,'PRESIDIO 1 0', 115.0000,1,     0.000,     0.000,   1,   9,1.03000, -20.4240,   1
  1011,'PRESIDIO 1 1',  22.0000,2,     0.000,     0.000,   1,   9,1.03022, -18.6711,   1
  1012,'SANDERSON 0 ', 115.0000,1,     0.000,     0.000,   1,   9,1.02271, -27.3425,   1
  1013,'MONAHANS 2 0', 115.0000,1,     0.000,     0.000,   1,   9,1.00914, -19.3278,   1
  1014,'GRANDFALLS 0', 115.0000,1,     0.000,     0.000,   1,   9,1.01556, -15.6312,   1
  1015,'MARFA 0     ', 115.0000,1,     0.000,     0.000,   1,   9,1.03193, -21.8702,   1
  1016,'GARDEN CIT~1', 115.0000,1,     0.000,     0.000,   1,   9,1.01903, -19.6693,   1
  1017,'ODESSA 4 0  ', 115.0000,1,     0.000,     0.000,   1,   9,0.98747, -25.6283,   1
  1018,'NOTREES 0   ', 115.0000,1,     0.000,     0.000,   1,   9,0.99477, -24.3424,   1
  1019,'MIDLAND 4 0 ', 115.0000,1,     0.000,     0.000,   1,   9,1.00790, -26.6184,   1
  1020,'BIG SPRING~1', 115.0000,1,     0.000,     0.000,   1,   9,1.02760, -19.6541,   1
  1021,'BIG SPRING~2',  13.8000,2,     0.000,     0.000,   1,   9,1.00337, -13.0919,   1
  1022,'O DONNELL ~3', 115.0000,1,     0.000,     0.000,   1,   9,1.01499, -23.6931,   1
  1023,'O DONNELL ~4',  13.8000,2,     0.000,     0.000,   1,   9,1.01000, -14.8048,   1
  1024,'ODESSA 6 0  ', 115.0000,1,     0.000,     0.000,   1,   9,0.99625, -23.2869,   1
  1025,'BIG SPRIN~14', 115.0000,1,     0.000,     0.000,   1,   9,1.02234, -18.6083,   1
  1026,'BIG SPRIN~15',  13.8000,2,     0.000,     0.000,   1,   9,1.00000,  -9.1282,   1
  1027,'MIDLAND 2 0 ', 115.0000,1,     0.000,     0.000,   1,   9,1.01579, -30.2706,   1
  1028,'COAHOMA 0   ', 115.0000,1,     0.000,     0.000,   1,   9,1.01743, -25.5558,   1
  1029,'MIDLAND 3 0 ', 115.0000,1,     0.000,     0.000,   1,   9,1.01089, -29.2501,   1
  1030,'ALPINE 0    ', 115.0000,1,     0.000,     0.000,   1,   9,1.01823, -16.9237,   1
  1031,'FORT DAVIS 0', 115.0000,1,     0.000,     0.000,   1,   9,1.01900, -21.4708,   1
  1032,'MCCAMEY 1 0 ', 115.0000,1,     0.000,     0.000,   1,   9,1.00756, -15.7044,   1
  1033,'MCCAMEY 1 1 ', 230.0000,2,     0.000,     0.000,   1,   9,1.02839, -20.2345,   1
  1034,'BIG SPRING~6', 115.0000,1,     0.000,     0.000,   1,   9,1.00665, -18.6654,   1
  1035,'BIG SPRING~7',  13.8000,2,     0.000,     0.000,   1,   9,1.00000, -15.3762,   1
  1036,'CRANE 0     ', 115.0000,1,     0.000,     0.000,   1,   9,1.00112, -16.0851,   1
  1037,'ODESSA 5 0  ', 115.0000,1,     0.000,     0.000,   1,   9,0.98149, -26.7803,   1
  1038,'FORT STOCK~1', 115.0000,1,     0.000,     0.000,   1,   9,1.02030, -11.0750,   1
  1039,'FORT STOCK~2',  22.0000,2,     0.000,     0.000,   1,   9,1.00000,  -5.7063,   1
  1040,'ANDREWS 0   ', 115.0000,1,     0.000,     0.000,   1,   9,0.99727, -24.6207,   1
  1041,'FORSAN 0    ', 115.0000,1,     0.000,     0.000,   1,   9,1.00512, -19.5510,   1
  1042,'FORSAN 1    ',  13.8000,1,     0.000,     0.000,   1,   9,1.00512, -19.5510,   1
  1043,'FORSAN 2    ',  13.8000,2,     0.000,     0.000,   1,   9,1.00000, -16.3140,   1
  1044,'BIG LAKE 0  ', 115.0000,1,     0.000,     0.000,   1,   9,1.01605, -30.2231,   1
  1045,'MIDLAND 5 0 ', 115.0000,1,     0.000,     0.000,   1,   9,0.98634, -28.7465,   1
  1046,'OZONA 0     ', 115.0000,1,     0.000,     0.000,   1,   9,1.02838, -25.4026,   1
  1047,'MONAHANS 1 0', 115.0000,1,     0.000,     0.000,   1,   9,1.00808, -17.2598,   1
  1048,'MONAHANS 1 1',  18.0000,1,     0.000,     0.000,   1,   9,1.00808, -17.2598,   1
  1049,'MONAHANS 1 2',  18.0000,1,     0.000,     0.000,   1,   9,1.00808, -17.2598,   1
  1050,'MONAHANS 1 3',  18.0000,2,     0.000,     0.000,   1,   9,1.00000, -12.1895,   1
  1051,'MONAHANS 1 4',  18.0000,2,     0.000,     0.000,   1,   9,1.00000, -10.7102,   1
  1052,'MONAHANS 1 5',  18.0000,2,     0.000,     0.000,   1,   9,1.00044, -13.0400,   1
  1053,'MONAHANS 1 6', 230.0000,1,     0.000,     0.000,   1,   9,1.02560, -21.1441,   1
  1054,'STANTON 0   ', 115.0000,1,     0.000,     0.000,   1,   9,1.01396, -27.4108,   1
  1055,'ODONNELL 0  ', 115.0000,1,     0.000,     0.000,   1,   9,1.00605, -25.2398,   1
  1056,'LENORAH 0   ', 115.0000,1,     0.000,     0.000,   1,   9,1.03000, -26.4366,   1
  1057,'LENORAH 1   ',  18.0000,1,     0.000,     0.000,   1,   9,1.03000, -26.4366,   1
  1058,'IRAAN 3 0   ', 115.0000,1,     0.000,     0.000,   1,   9,1.02630, -14.3378,   1
  1059,'IRAAN 3 1   ',  22.0000,1,     0.000,     0.000,   1,   9,1.02630, -14.3378,   1
  1060,'IRAAN 3 2   ',  22.0000,1,     0.000,     0.000,   1,   9,1.02630, -14.3378,   1
  1061,'BIG SPRIN~10', 115.0000,1,     0.000,     0.000,   1,   9,1.01253, -21.6894,   1
  1062,'BIG SPRIN~11',  13.8000,1,     0.000,     0.000,   1,   9,1.01253, -21.6894,   1
  1063,'BIG SPRIN~12',  13.8000,1,     0.000,     0.000,   1,   9,1.01253, -21.6894,   1
  1064,'ODESSA 3 0  ', 115.0000,1,     0.000,     0.000,   1,   9,0.98076, -28.4337,   1
  1065,'BIG SPRING~4', 115.0000,1,     0.000,     0.000,   1,   9,1.00795, -19.4107,   1
  1066,'BIG SPRING~5',  13.8000,2,     0.000,     0.000,   1,   9,1.00000, -11.8961,   1
  1067,'BIG SPRIN~13', 115.0000,1,     0.000,     0.000,   1,   9,1.00213, -20.1005,   1
  1068,'MIDLAND 1 0 ', 115.0000,1,     0.000,     0.000,   1,   9,0.98752, -20.3854,   1
  1069,'IRAAN 1 0   ', 115.0000,1,     0.000,     0.000,   1,   9,1.02783, -11.9403,   1
  1070,'IRAAN 1 1   ',  13.8000,2,     0.000,     0.000,   1,   9,1.04000,  -7.4471,   1
  1071,'ODESSA 1 0  ', 115.0000,1,     0.000,     0.000,   1,   9,0.99542, -25.7808,   1
  1072,'ODESSA 1 1  ',  18.0000,2,     0.000,     0.000,   1,   9,1.01000, -16.4397,   1
  1073,'ODESSA 1 2  ',  18.0000,2,     0.000,     0.000,   1,   9,1.01000, -10.0624,   1
  1074,'ODESSA 1 3  ',  18.0000,2,     0.000,     0.000,   1,   9,1.01000, -12.1006,   1
  1075,'ODESSA 1 4  ',  18.0000,2,     0.000,     0.000,   1,   9,1.01000, -14.8564,   1
  1076,'ODESSA 1 5  ',  18.0000,1,     0.000,     0.000,   1,   9,0.99542, -25.7808,   1
  1077,'ODESSA 1 6  ',  18.0000,1,     0.000,     0.000,   1,   9,0.99542, -25.7808,   1
  1078,'ODESSA 1 7  ',  18.0000,2,     0.000,     0.000,   1,   9,1.01000, -15.3773,   1
  1079,'ODESSA 1 8  ', 500.0000,2,     0.000,     0.000,   1,   9,1.04330, -42.7843,   1
  1080,'ODESSA 1 9  ',  18.0000,2,     0.000,     0.000,   1,   9,1.01000, -14.7889,   1
  1081,'ODESSA 1 10 ', 230.0000,1,     0.000,     0.000,   1,   9,1.03000, -22.4631,   1
  1082,'FORT STOCK~3', 115.0000,2,     0.000,     0.000,   1,   9,1.02369,  -9.2807,   1
  1083,'FORT STOCK~4', 115.0000,1,     0.000,     0.000,   1,   9,1.02273, -13.3745,   1
  1084,'BIG SPRING~3', 115.0000,2,     0.000,     0.000,   1,   9,1.03040, -20.8705,   1
  1085,'KERMIT 0    ', 115.0000,1,     0.000,     0.000,   1,   9,1.01111, -19.2810,   1
  1086,'PECOS 0     ', 115.0000,1,     0.000,     0.000,   1,   9,1.01816, -21.4912,   1
  1087,'SHEFFIELD 0 ', 115.0000,1,     0.000,     0.000,   1,   9,1.03000, -19.0313,   1
  1088,'MCCAMEY 2 0 ', 115.0000,2,     0.000,     0.000,   1,   9,1.00000, -15.5756,   1
  1089,'LAMESA 0    ', 115.0000,1,     0.000,     0.000,   1,   9,0.98796, -27.6722,   1
  1090,'GOLDSMITH 0 ', 115.0000,2,     0.000,     0.000,   1,   9,1.02000, -20.1888,   1
  1091,'RALLS 2 0   ', 161.0000,1,     0.000,     0.000,   1,   9,1.02892, -40.3126,   1
  2001,'PARIS 3 0   ', 161.0000,1,     0.000,     0.000,   2,  11,1.00634, -61.1197,   1
  2002,'SAVOY 0     ', 500.0000,1,     0.000,     0.000,   2,  11,1.01654, -62.2267,   1
  2003,'SAVOY 1     ', 161.0000,1,     0.000,     0.000,   2,  11,1.01541, -64.4263,   1
  2004,'SAVOY 2     ',  13.8000,1,     0.000,     0.000,   2,  11,1.01654, -62.2267,   1
  2005,'SAVOY 3     ',  13.8000,1,     0.000,     0.000,   2,  11,1.01654, -62.2267,   1
  2006,'SAVOY 4     ',  13.8000,1,     0.000,     0.000,   2,  11,1.01654, -62.2267,   1
  2007,'HONEY GROV~1', 161.0000,1,     0.000,     0.000,   2,  11,1.00753, -60.8640,   1
  2008,'MEMPHIS 0   ', 161.0000,1,     0.000,     0.000,   2,  10,1.01968, -41.3022,   1
  2009,'IOWA PARK 0 ', 161.0000,1,     0.000,     0.000,   2,  11,1.03000, -50.6716,   1
  2010,'VERNON 2 0  ', 161.0000,1,     0.000,     0.000,   2,  10,1.03000, -42.9943,   1
  2011,'PANHANDLE ~2', 500.0000,1,     0.000,     0.000,   2,  10,1.04130, -39.9544,   1
  2012,'PANHANDLE ~3', 161.0000,1,     0.000,     0.000,   2,  10,1.03045, -37.9591,   1
  2013,'PANHANDLE ~4',  18.0000,2,     0.000,     0.000,   2,  10,1.03296, -37.6255,   1
  2014,'CHILDRESS 0 ', 161.0000,1,     0.000,     0.000,   2,  10,1.01833, -42.1065,   1
  2015,'FORESTBURG 0', 161.0000,1,     0.000,     0.000,   2,  11,1.01668, -64.4776,   1
  2016,'SHERMAN 3 0 ', 161.0000,1,     0.000,     0.000,   2,  11,1.01530, -70.2657,   1
  2017,'PANHANDLE ~7', 500.0000,1,     0.000,  -100.000,   2,  10,1.03331, -41.1163,   1
  2018,'PANHANDLE ~8', 161.0000,1,     0.000,     0.000,   2,  10,1.03006, -40.0704,   1
  2019,'PANHANDLE ~9',  20.0000,1,     0.000,     0.000,   2,  10,1.03331, -41.1163,   1
  2020,'WICHITA F~12', 161.0000,1,     0.000,     0.000,   2,  11,1.00859, -50.3620,   1
  2021,'PARIS 2 0   ', 500.0000,1,     0.000,     0.000,   2,  11,1.01795, -57.9432,   1
  2022,'PARIS 2 1   ', 161.0000,1,     0.000,     0.000,   2,  11,1.01440, -59.8052,   1
  2023,'PARIS 2 2   ',  13.8000,2,     0.000,     0.000,   2,  11,1.02000, -56.3786,   1
  2024,'PARIS 2 3   ',  13.8000,2,     0.000,     0.000,   2,  11,1.02000, -55.7142,   1
  2025,'WICHITA F~10', 161.0000,1,     0.000,     0.000,   2,  11,1.00658, -49.6732,   1
  2026,'WHEELER 0   ', 161.0000,1,     0.000,     0.000,   2,  10,1.02951, -38.9887,   1
  2027,'DEPORT 0    ', 161.0000,1,     0.000,     0.000,   2,  11,1.00695, -61.5264,   1
  2028,'WICHITA FA~9', 161.0000,1,     0.000,     0.000,   2,  11,1.00875, -52.2630,   1
  2029,'SILVERTON 0 ', 161.0000,1,     0.000,     0.000,   2,  10,1.02405, -41.6683,   1
  2030,'BONHAM 0    ', 161.0000,1,     0.000,     0.000,   2,  11,0.99436, -64.8420,   1
  2031,'MATADOR 0   ', 161.0000,1,     0.000,     0.000,   2,  10,1.02497, -36.8961,   1
  2032,'ARTHUR CIT~1', 161.0000,1,     0.000,     0.000,   2,  11,1.00944, -60.2953,   1
  2033,'LEONARD 0   ', 161.0000,1,     0.000,     0.000,   2,  11,0.99701, -66.1894,   1
  2034,'GORDONVILL~1', 161.0000,1,     0.000,     0.000,   2,  11,1.01306, -69.6689,   1
  2035,'KNOX CITY 0 ', 161.0000,1,     0.000,     0.000,   2,  10,1.02235, -36.8048,   1
  2036,'WICHITA F~13', 161.0000,1,     0.000,     0.000,   2,  11,1.01121, -50.0534,   1
  2037,'LINDSAY 0   ', 161.0000,1,     0.000,     0.000,   2,  11,1.02692, -64.7312,   1
  2038,'ECTOR 0     ', 161.0000,1,     0.000,     0.000,   2,  11,1.01244, -64.8887,   1
  2039,'SUNSET 0    ', 161.0000,1,     0.000,     0.000,   2,  11,1.00253, -62.1015,   1
  2040,'CLARKSVILL~1', 161.0000,1,     0.000,     0.000,   2,  11,1.01205, -60.4725,   1
  2041,'PANHANDLE ~5', 161.0000,1,     0.000,     0.000,   2,  10,1.03136, -35.7668,   1
  2042,'PANHANDLE ~6',  18.0000,2,     0.000,     0.000,   2,  10,1.02280, -33.2083,   1
  2043,'SADLER 0    ', 161.0000,1,     0.000,     0.000,   2,  11,1.01385, -69.9440,   1
  2044,'WHITESBORO 0', 161.0000,1,     0.000,     0.000,   2,  11,1.02155, -66.0259,   1
  2045,'SHEPPARD A~1', 161.0000,1,     0.000,     0.000,   2,  11,1.00808, -50.8045,   1
  2046,'POTTSBORO 0 ', 161.0000,1,     0.000,     0.000,   2,  11,1.01260, -69.3169,   1
  2047,'BELLS 0     ', 161.0000,1,     0.000,     0.000,   2,  11,1.01427, -65.3024,   1
  2048,'CROSBYTON 0 ', 161.0000,1,     0.000,     0.000,   2,  10,1.02921, -39.7142,   1
  2049,'ELECTRA 0   ', 161.0000,1,     0.000,     0.000,   2,  10,1.02496, -46.7431,   1
  2050,'PATTONVILL~1', 161.0000,1,     0.000,     0.000,   2,  11,0.99971, -64.1562,   1
  2051,'HENRIETTA 0 ', 161.0000,1,     0.000,     0.000,   2,  11,1.00507, -57.4983,   1
  2052,'PANHANDLE~13', 161.0000,1,     0.000,     0.000,   2,  10,1.02083, -40.2450,   1
  2053,'BOWIE 0     ', 161.0000,1,     0.000,     0.000,   2,  11,0.99948, -60.2180,   1
  2054,'WICHITA FA~1', 500.0000,1,     0.000,     0.000,   2,  11,1.01154, -48.8438,   1
  2055,'WICHITA FA~2', 161.0000,1,     0.000,     0.000,   2,  11,1.01047, -49.5719,   1
  2056,'WICHITA FA~3',  18.0000,1,     0.000,     0.000,   2,  11,1.01154, -48.8438,   1
  2057,'WICHITA FA~4',  18.0000,2,     0.000,     0.000,   2,  11,0.99945, -45.7034,   1
  2058,'WHITE DEER 0', 161.0000,1,     0.000,     0.000,   2,  10,1.03167, -35.3158,   1
  2059,'WHITE DEER 1',  13.8000,2,     0.000,     0.000,   2,  10,1.02172, -31.9912,   1
  2060,'ROXTON 0    ', 161.0000,1,     0.000,     0.000,   2,  11,1.00271, -62.9200,   1
  2061,'VERNON 1 0  ', 161.0000,1,     0.000,     0.000,   2,  10,1.02570, -43.4658,   1
  2062,'VERNON 1 1  ',  18.0000,2,     0.000,     0.000,   2,  10,1.02000, -41.1693,   1
  2063,'DENISON 2 0 ', 161.0000,1,     0.000,     0.000,   2,  11,1.01371, -68.7181,   1
  2064,'SUMNER 0    ', 161.0000,1,     0.000,     0.000,   2,  11,1.00799, -61.3523,   1
  2065,'GAINESVILL~1', 161.0000,1,     0.000,     0.000,   2,  11,1.03000, -66.3921,   1
  2066,'ASPERMONT 0 ', 161.0000,1,     0.000,     0.000,   2,  10,1.02070, -33.7384,   1
  2067,'WICHITA F~11', 161.0000,1,     0.000,     0.000,   2,  11,1.00396, -49.5182,   1
  2068,'WINDTHORST 0', 161.0000,1,     0.000,     0.000,   2,  11,1.00660, -47.2046,   1
  2069,'HOWE 0      ', 161.0000,1,     0.000,     0.000,   2,  11,1.02985, -69.3916,   1
  2070,'ARCHER 2 0  ', 161.0000,1,     0.000,     0.000,   2,  11,1.00807, -46.6813,   1
  2071,'ARCHER 2 1  ',  18.0000,2,     0.000,     0.000,   2,  11,1.00000, -43.0195,   1
  2072,'COLLINSVIL~1', 161.0000,1,     0.000,     0.000,   2,  11,1.02339, -67.5825,   1
  2073,'JAYTON 0    ', 161.0000,1,     0.000,     0.000,   2,  10,1.02127, -31.1146,   1
  2074,'JAYTON 1    ', 115.0000,1,     0.000,     0.000,   2,  10,1.01055, -29.0194,   1
  2075,'JAYTON 2    ', 115.0000,1,     0.000,     0.000,   2,  10,1.01055, -29.0194,   1
  2076,'JAYTON 3    ',  24.0000,2,     0.000,     0.000,   2,  10,1.02650, -30.2180,   1
  2077,'MUENSTER 1 0', 161.0000,1,     0.000,     0.000,   2,  11,1.02708, -62.6339,   1
  2078,'MUENSTER 1 1',  13.8000,2,     0.000,     0.000,   2,  11,1.02000, -59.3266,   1
  2079,'PADUCAH 0   ', 161.0000,1,     0.000,     0.000,   2,  10,1.03091, -41.8008,   1
  2080,'NOCONA 0    ', 161.0000,1,     0.000,     0.000,   2,  11,1.00844, -59.9628,   1
  2081,'DODD CITY 0 ', 161.0000,1,     0.000,     0.000,   2,  11,1.00712, -65.6765,   1
  2082,'WICHITA FA~5', 161.0000,1,     0.000,     0.000,   2,  11,1.01414, -50.3584,   1
  2083,'WICHITA FA~6',  20.0000,2,     0.000,     0.000,   2,  11,1.02000, -48.7817,   1
  2084,'WICHITA FA~7',  20.0000,1,     0.000,     0.000,   2,  11,1.01414, -50.3584,   1
  2085,'WICHITA FA~8',  20.0000,1,     0.000,     0.000,   2,  11,1.01414, -50.3584,   1
  2086,'MONTAGUE 0  ', 161.0000,1,     0.000,     0.000,   2,  11,1.00491, -61.3037,   1
  2087,'SPUR 0      ', 161.0000,1,     0.000,     0.000,   2,  10,1.02210, -34.0717,   1
  2088,'ARCHER 1 0  ', 161.0000,1,     0.000,     0.000,   2,  11,1.00716, -46.8657,   1
  2089,'ARCHER 1 1  ',  24.0000,2,     0.000,     0.000,   2,  11,1.00000, -43.2797,   1
  2090,'ANNONA 0    ', 161.0000,1,     0.000,     0.000,   2,  11,1.00752, -62.1033,   1
  2091,'SEYMOUR 0   ', 161.0000,1,     0.000,     0.000,   2,  10,1.02483, -40.3894,   1
  2092,'DENISON 1 0 ', 161.0000,1,     0.000,     0.000,   2,  11,1.01244, -67.0861,   1
  2093,'PANHANDLE~10', 161.0000,1,     0.000,     0.000,   2,  10,1.03065, -38.9572,   1
  2094,'PANHANDLE~11',  13.8000,1,     0.000,     0.000,   2,  10,1.03065, -38.9572,   1
  2095,'PANHANDLE~12',  13.8000,1,     0.000,     0.000,   2,  10,1.03065, -38.9572,   1
  2096,'RALLS 1 0   ', 500.0000,1,     0.000,   -86.936,   2,  10,1.02977, -40.0898,   1
  2097,'RALLS 1 1   ', 230.0000,1,     0.000,     0.000,   2,  10,1.02661, -39.0077,   1
  2098,'RALLS 1 2   ', 161.0000,1,     0.000,     0.000,   2,  10,1.02929, -40.1062,   1
  2099,'RALLS 1 3   ',  18.0000,2,     0.000,     0.000,   2,  10,1.02930, -39.9486,   1
  2100,'RALLS 1 4   ',  18.0000,2,     0.000,     0.000,   2,  10,1.02057, -37.4826,   1
  2101,'SHERMAN 1 0 ', 500.0000,1,     0.000,     0.000,   2,  11,1.01602, -63.1594,   1
  2102,'SHERMAN 1 1 ', 161.0000,1,     0.000,     0.000,   2,  11,1.01693, -64.5594,   1
  2103,'SHERMAN 1 2 ',  20.0000,1,     0.000,     0.000,   2,  11,1.01602, -63.1594,   1
  2104,'SHERMAN 1 3 ',  20.0000,1,     0.000,     0.000,   2,  11,1.01602, -63.1594,   1
  2105,'SHERMAN 1 4 ',  20.0000,1,     0.000,     0.000,   2,  11,1.01602, -63.1594,   1
  2106,'WHITEWRIGH~1', 161.0000,1,     0.000,     0.000,   2,  11,0.99550, -66.7553,   1
  2107,'SHERMAN 2 0 ', 161.0000,1,     0.000,     0.000,   2,  11,1.01170, -65.3648,   1
  2108,'ROCHESTER 0 ', 161.0000,1,     0.000,     0.000,   2,  10,1.01277, -47.1914,   1
  2109,'BURKBURNET~1', 161.0000,1,     0.000,     0.000,   2,  11,1.01841, -51.6310,   1
...
0 / END OF BUS DATA, BEGIN LOAD DATA
  1001,'1 ',1,   1,   9,    20.781,     5.888,     0.000,     0.000,     0.000,     0.000,   1
  1002,'1 ',1,   1,   9,    15.414,     4.367,     0.000,     0.000,     0.000,     0.000,   1
  1007,'1 ',1,   1,   9,     7.008,     1.986,     0.000,     0.000,     0.000,     0.000,   1
  1012,'1 ',1,   1,   9,     2.985,     0.846,     0.000,     0.000,     0.000,     0.000,   1
  1013,'1 ',1,   1,   9,     0.510,     0.144,     0.000,     0.000,     0.000,     0.000,   1
  1013,'2 ',1,   1,   9,     1.518,     0.430,     0.000,     0.000,     0.000,     0.000,   1
  1013,'3 ',1,   1,   9,    27.198,     7.706,     0.000,     0.000,     0.000,     0.000,   1
  1014,'1 ',1,   1,   9,     2.220,     0.629,     0.000,     0.000,     0.000,     0.000,   1
  1015,'1 ',1,   1,   9,     7.509,     2.128,     0.000,     0.000,     0.000,     0.000,   1
  1016,'1 ',1,   1,   9,     2.889,     0.819,     0.000,     0.000,     0.000,     0.000,   1
  1017,'1 ',1,   1,   9,    18.345,     5.198,     0.000,     0.000,     0.000,     0.000,   1
  1018,'1 ',1,   1,   9,     0.069,     0.020,     0.000,     0.000,     0.000,     0.000,   1
  1019,'1 ',1,   1,   9,    61.776,    17.503,     0.000,     0.000,     0.000,     0.000,   1
  1024,'1 ',1,   1,   9,    63.039,    17.861,     0.000,     0.000,     0.000,     0.000,   1
  1027,'1 ',1,   1,   9,     0.603,     0.171,     0.000,     0.000,     0.000,     0.000,   1
  1027,'2 ',1,   1,   9,   100.608,    28.506,     0.000,     0.000,     0.000,     0.000,   1
  1028,'1 ',1,   1,   9,     1.425,     0.404,     0.000,     0.000,     0.000,     0.000,   1
  1028,'2 ',1,   1,   9,     0.753,     0.213,     0.000,     0.000,     0.000,     0.000,   1
  1028,'3 ',1,   1,   9,     4.899,     1.388,     0.000,     0.000,     0.000,     0.000,   1
  1028,'4 ',1,   1,   9,     2.937,     0.832,     0.000,     0.000,     0.000,     0.000,   1
  1029,'1 ',1,   1,   9,    83.184,    23.569,     0.000,     0.000,     0.000,     0.000,   1
  1030,'1 ',1,   1,   9,    23.046,     6.530,     0.000,     0.000,     0.000,     0.000,   1
  1030,'2 ',1,   1,   9,     1.581,     0.448,     0.000,     0.000,     0.000,     0.000,   1
  1031,'1 ',1,   1,   9,     9.246,     2.620,     0.000,     0.000,     0.000,     0.000,   1
  1036,'1 ',1,   1,   9,     1.017,     0.288,     0.000,     0.000,     0.000,     0.000,   1
  1036,'2 ',1,   1,   9,    12.579,     3.564,     0.000,     0.000,     0.000,     0.000,   1
  1037,'1 ',1,   1,   9,   102.237,    28.967,     0.000,     0.000,     0.000,     0.000,   1
  1040,'1 ',1,   1,   9,    44.358,    12.568,     0.000,     0.000,     0.000,     0.000,   1
  1044,'1 ',1,   1,   9,     4.512,     1.278,     0.000,     0.000,     0.000,     0.000,   1
  1044,'2 ',1,   1,   9,    10.170,     2.881,     0.000,     0.000,     0.000,     0.000,   1
  1045,'1 ',1,   1,   9,    98.562,    27.926,     0.000,     0.000,     0.000,     0.000,   1
  1046,'1 ',1,   1,   9,     0.006,     0.002,     0.000,     0.000,     0.000,     0.000,   1
  1046,'2 ',1,   1,   9,    11.079,     3.139,     0.000,     0.000,     0.000,     0.000,   1
  1054,'1 ',1,   1,   9,     1.776,     0.503,     0.000,     0.000,     0.000,     0.000,   1
  1054,'2 ',1,   1,   9,     0.519,     0.147,     0.000,     0.000,     0.000,     0.000,   1
  1054,'3 ',1,   1,   9,    12.693,     3.596,     0.000,     0.000,     0.000,     0.000,   1
  1055,'1 ',1,   1,   9,     3.978,     1.127,     0.000,     0.000,     0.000,     0.000,   1
  1058,'1 ',1,   1,   9,     4.086,     1.158,     0.000,     0.000,     0.000,     0.000,   1
  1058,'2 ',1,   1,   9,     9.369,     2.655,     0.000,     0.000,     0.000,     0.000,   1
  1064,'1 ',1,   1,   9,     6.591,     1.867,     0.000,     0.000,     0.000,     0.000,   1
  1064,'2 ',1,   1,   9,   117.168,    33.198,     0.000,     0.000,     0.000,     0.000,   1
  1067,'1 ',1,   1,   9,   101.550,    28.773,     0.000,     0.000,     0.000,     0.000,   1
  1068,'1 ',1,   1,   9,     0.690,     0.195,     0.000,     0.000,     0.000,     0.000,   1
  1068,'2 ',1,   1,   9,    58.713,    16.635,     0.000,     0.000,     0.000,     0.000,   1
  1071,'1 ',1,   1,   9,    91.464,    25.915,     0.000,     0.000,     0.000,     0.000,   1
  1083,'1 ',1,   1,   9,    39.945,    11.318,     0.000,     0.000,     0.000,     0.000,   1
  1085,'1 ',1,   1,   9,     2.922,     0.828,     0.000,     0.000,     0.000,     0.000,   1
  1085,'2 ',1,   1,   9,    18.375,     5.206,     0.000,     0.000,     0.000,     0.000,   1
  1086,'1 ',1,   1,   9,    39.672,    11.240,     0.000,     0.000,     0.000,     0.000,   1
  1087,'1 ',1,   1,   9,     0.909,     0.258,     0.000,     0.000,     0.000,     0.000,   1
  1089,'1 ',1,   1,   9,     0.831,     0.235,     0.000,     0.000,     0.000,     0.000,   1
  1089,'2 ',1,   1,   9,    39.774,    11.269,     0.000,     0.000,     0.000,     0.000,   1
  1091,'1 ',1,   1,   9,     4.713,     1.335,     0.000,     0.000,     0.000,     0.000,   1
  1091,'2 ',1,   1,   9,     6.909,     1.958,     0.000,     0.000,     0.000,     0.000,   1
  2001,'1 ',1,   2,  11,    14.307,     4.054,     0.000,     0.000,     0.000,     0.000,   1
  2001,'2 ',1,   2,  11,    34.050,     9.647,     0.000,     0.000,     0.000,     0.000,   1
  2007,'1 ',1,   2,  11,     9.540,     2.703,     0.000,     0.000,     0.000,     0.000,   1
  2008,'1 ',1,   2,  10,     8.061,     2.284,     0.000,     0.000,     0.000,     0.000,   1
  2009,'1 ',1,   2,  11,    39.135,    11.088,     0.000,     0.000,     0.000,     0.000,   1
  2010,'1 ',1,   2,  10,     5.106,     1.447,     0.000,     0.000,     0.000,     0.000,   1
  2010,'2 ',1,   2,  10,     9.606,     2.722,     0.000,     0.000,     0.000,     0.000,   1
  2010,'3 ',1,   2,  10,     2.928,     0.830,     0.000,     0.000,     0.000,     0.000,   1
  2010,'4 ',1,   2,  10,     0.192,     0.054,     0.000,     0.000,     0.000,     0.000,   1
  2010,'5 ',1,   2,  10,    38.973,    11.042,     0.000,     0.000,     0.000,     0.000,   1
  2014,'1 ',1,   2,  10,     3.624,     1.027,     0.000,     0.000,     0.000,     0.000,   1
  2014,'2 ',1,   2,  10,    21.804,     6.178,     0.000,     0.000,     0.000,     0.000,   1
  2015,'1 ',1,   2,  11,     4.686,     1.328,     0.000,     0.000,     0.000,     0.000,   1
  2016,'1 ',1,   2,  11,    69.267,    19.626,     0.000,     0.000,     0.000,     0.000,   1
  2020,'1 ',1,   2,  11,    47.973,    13.592,     0.000,     0.000,     0.000,     0.000,   1
  2022,'1 ',1,   2,  11,    11.565,     3.277,     0.000,     0.000,     0.000,     0.000,   1
  2025,'1 ',1,   2,  11,    39.618,    11.225,     0.000,     0.000,     0.000,     0.000,   1
  2026,'1 ',1,   2,  10,     2.511,     0.711,     0.000,     0.000,     0.000,     0.000,   1
  2026,'2 ',1,   2,  10,     0.948,     0.269,     0.000,     0.000,     0.000,     0.000,   1
  2026,'3 ',1,   2,  10,     7.173,     2.032,     0.000,     0.000,     0.000,     0.000,   1
  2026,'4 ',1,   2,  10,     7.938,     2.249,     0.000,     0.000,     0.000,     0.000,   1
  2027,'1 ',1,   2,  11,     3.555,     1.007,     0.000,     0.000,     0.000,     0.000,   1
  2028,'1 ',1,   2,  11,    14.238,     4.034,     0.000,     0.000,     0.000,     0.000,   1
  2029,'1 ',1,   2,  10,     3.201,     0.907,     0.000,     0.000,     0.000,     0.000,   1
  2030,'1 ',1,   2,  11,     3.912,     1.108,     0.000,     0.000,     0.000,     0.000,   1
  2030,'2 ',1,   2,  11,    43.233,    12.249,     0.000,     0.000,     0.000,     0.000,   1
  2031,'1 ',1,   2,  10,     0.786,     0.223,     0.000,     0.000,     0.000,     0.000,   1
  2031,'2 ',1,   2,  10,     1.272,     0.360,     0.000,     0.000,     0.000,     0.000,   1
  2031,'3 ',1,   2,  10,     3.708,     1.051,     0.000,     0.000,     0.000,     0.000,   1
  2032,'1 ',1,   2,  11,     3.354,     0.950,     0.000,     0.000,     0.000,     0.000,   1
  2033,'1 ',1,   2,  11,     1.302,     0.369,     0.000,     0.000,     0.000,     0.000,   1
  2033,'2 ',1,   2,  11,    12.270,     3.477,     0.000,     0.000,     0.000,     0.000,   1
  2034,'1 ',1,   2,  11,     5.340,     1.513,     0.000,     0.000,     0.000,     0.000,   1
  2035,'1 ',1,   2,  10,     4.149,     1.176,     0.000,     0.000,     0.000,     0.000,   1
  2035,'2 ',1,   2,  10,     0.534,     0.151,     0.000,     0.000,     0.000,     0.000,   1
  2036,'1 ',1,   2,  11,    41.586,    11.783,     0.000,     0.000,     0.000,     0.000,   1
  2037,'1 ',1,   2,  11,     0.690,     0.195,     0.000,     0.000,     0.000,     0.000,   1
  2037,'2 ',1,   2,  11,     2.811,     0.796,     0.000,     0.000,     0.000,     0.000,   1
  2038,'1 ',1,   2,  11,     2.604,     0.738,     0.000,     0.000,     0.000,     0.000,   1
  2039,'1 ',1,   2,  11,     5.559,     1.575,     0.000,     0.000,     0.000,     0.000,   1
  2040,'1 ',1,   2,  11,    15.903,     4.506,     0.000,     0.000,     0.000,     0.000,   1
  2043,'1 ',1,   2,  11,     4.236,     1.200,     0.000,     0.000,     0.000,     0.000,   1
  2044,'1 ',1,   2,  11,    27.405,     7.765,     0.000,     0.000,     0.000,     0.000,   1
  2045,'1 ',1,   2,  11,    22.605,     6.405,     0.000,     0.000,     0.000,     0.000,   1
  2046,'1 ',1,   2,  11,    22.134,     6.271,     0.000,     0.000,     0.000,     0.000,   1
  2047,'1 ',1,   2,  11,     9.408,     2.666,     0.000,     0.000,     0.000,     0.000,   1
  2047,'2 ',1,   2,  11,     5.547,     1.572,     0.000,     0.000,     0.000,     0.000,   1
  2048,'1 ',1,   2,  10,     6.417,     1.818,     0.000,     0.000,     0.000,     0.000,   1
  2049,'1 ',1,   2,  10,     0.486,     0.138,     0.000,     0.000,     0.000,     0.000,   1
  2049,'2 ',1,   2,  10,     0.579,     0.164,     0.000,     0.000,     0.000,     0.000,   1
  2049,'3 ',1,   2,  10,    10.506,     2.977,     0.000,     0.000,     0.000,     0.000,   1
  2050,'1 ',1,   2,  11,     3.657,     1.036,     0.000,     0.000,     0.000,     0.000,   1
  2051,'1 ',1,   2,  11,    17.850,     5.057,     0.000,     0.000,     0.000,     0.000,   1
  2052,'1 ',1,   2,  10,     9.459,     2.680,     0.000,     0.000,     0.000,     0.000,   1
  2052,'2 ',1,   2,  10,    15.378,     4.357,     0.000,     0.000,     0.000,     0.000,   1
  2053,'1 ',1,   2,  11,    29.133,     8.254,     0.000,     0.000,     0.000,     0.000,   1
  2055,'1 ',1,   2,  11,    49.620,    14.059,     0.000,     0.000,     0.000,     0.000,   1
  2060,'1 ',1,   2,  11,     3.795,     1.075,     0.000,     0.000,     0.000,     0.000,   1
  2063,'1 ',1,   2,  11,    65.616,    18.591,     0.000,     0.000,     0.000,     0.000,   1
  2064,'1 ',1,   2,  11,     7.038,     1.994,     0.000,     0.000,     0.000,     0.000,   1
  2064,'2 ',1,   2,  11,     3.009,     0.853,     0.000,     0.000,     0.000,     0.000,   1
  2065,'1 ',1,   2,  11,    78.360,    22.202,     0.000,     0.000,     0.000,     0.000,   1
  2066,'1 ',1,   2,  10,     4.050,     1.147,     0.000,     0.000,     0.000,     0.000,   1
  2066,'2 ',1,   2,  10,     2.541,     0.720,     0.000,     0.000,     0.000,     0.000,   1
  2066,'3 ',1,   2,  10,     0.522,     0.148,     0.000,     0.000,     0.000,     0.000,   1
  2067,'1 ',1,   2,  11,    53.967,    15.291,     0.000,     0.000,     0.000,     0.000,   1
  2068,'1 ',1,   2,  11,     5.760,     1.632,     0.000,     0.000,     0.000,     0.000,   1
  2069,'1 ',1,   2,  11,    21.924,     6.212,     0.000,     0.000,     0.000,     0.000,   1
  2072,'1 ',1,   2,  11,     9.705,     2.750,     0.000,     0.000,     0.000,     0.000,   1
  2079,'1 ',1,   2,  10,     4.479,     1.269,     0.000,     0.000,     0.000,     0.000,   1
  2080,'1 ',1,   2,  11,    16.932,     4.797,     0.000,     0.000,     0.000,     0.000,   1
  2081,'1 ',1,   2,  11,     4.464,     1.265,     0.000,     0.000,     0.000,     0.000,   1
  2082,'1 ',1,   2,  11,    59.031,    16.725,     0.000,     0.000,     0.000,     0.000,   1
  2086,'1 ',1,   2,  11,     2.193,     0.621,     0.000,     0.000,     0.000,     0.000,   1
  2087,'1 ',1,   2,  10,     7.896,     2.237,     0.000,     0.000,     0.000,     0.000,   1
  2090,'1 ',1,   2,  11,     2.424,     0.687,     0.000,     0.000,     0.000,     0.000,   1
  2091,'1 ',1,   2,  10,    17.046,     4.830,     0.000,     0.000,     0.000,     0.000,   1
  2092,'1 ',1,   2,  11,    24.108,     6.831,     0.000,     0.000,     0.000,     0.000,   1
  2106,'1 ',1,   2,  11,    14.403,     4.081,     0.000,     0.000,     0.000,     0.000,   1
  2107,'1 ',1,   2,  11,    74.151,    21.009,     0.000,     0.000,     0.000,     0.000,   1
  2108,'1 ',1,   2,  10,     2.145,     0.608,     0.000,     0.000,     0.000,     0.000,   1
  2109,'1 ',1,   2,  11,    33.810,     9.579,     0.000,     0.000,     0.000,     0.000,   1
  2110,'1 ',1,   2,  11,     8.589,     2.434,     0.000,     0.000,     0.000,     0.000,   1
  2111,'1 ',1,   2,  11,     7.002,     1.984,     0.000,     0.000,     0.000,     0.000,   1
  2111,'2 ',1,   2,  11,     6.951,     1.969,     0.000,     0.000,     0.000,     0.000,   1
  2112,'1 ',1,   2,  11,     4.542,     1.287,     0.000,     0.000,     0.000,     0.000,   1
  2114,'1 ',1,   2,  11,    70.776,    20.053,     0.000,     0.000,     0.000,     0.000,   1
  2121,'1 ',1,   2,  11,     2.334,     0.661,     0.000,     0.000,     0.000,     0.000,   1
  2122,'1 ',1,   2,  11,     6.723,     1.905,     0.000,     0.000,     0.000,     0.000,   1
  2124,'1 ',1,   2,  11,    21.285,     6.031,     0.000,     0.000,     0.000,     0.000,   1
  2125,'1 ',1,   2,  11,     4.056,     1.149,     0.000,     0.000,     0.000,     0.000,   1
  2126,'1 ',1,   2,  11,    14.235,     4.033,     0.000,     0.000,     0.000,     0.000,   1
  2129,'1 ',1,   2,  11,     6.633,     1.879,     0.000,     0.000,     0.000,     0.000,   1
  2132,'1 ',1,   2,  10,    11.940,     3.383,     0.000,     0.000,     0.000,     0.000,   1
  2133,'1 ',1,   2,  11,     5.679,     1.609,     0.000,     0.000,     0.000,     0.000,   1
  3002,'1 ',1,   3,  28,   112.860,    31.977,     0.000,     0.000,     0.000,     0.000,   1
  3005,'1 ',1,   3,  28,     0.792,     0.224,     0.000,     0.000,     0.000,     0.000,   1
  3005,'2 ',1,   3,  28,     0.825,     0.234,     0.000,     0.000,     0.000,     0.000,   1
  3005,'3 ',1,   3,  28,     5.724,     1.622,     0.000,     0.000,     0.000,     0.000,   1
  3006,'1 ',1,   3,  27,     7.347,     2.082,     0.000,     0.000,     0.000,     0.000,   1
  3007,'1 ',1,   3,  27,    14.964,     4.240,     0.000,     0.000,     0.000,     0.000,   1
  3008,'1 ',1,   3,  27,    18.996,     5.382,     0.000,     0.000,     0.000,     0.000,   1
  3008,'2 ',1,   3,  27,     0.813,     0.230,     0.000,     0.000,     0.000,     0.000,   1
  3009,'1 ',1,   3,  28,    12.540,     3.553,     0.000,     0.000,     0.000,     0.000,   1
  3010,'1 ',1,   3,  28,     4.671,     1.323,     0.000,     0.000,     0.000,     0.000,   1
  3011,'1 ',1,   3,  28,    18.981,     5.378,     0.000,     0.000,     0.000,     0.000,   1
  3011,'2 ',1,   3,  28,     8.157,     2.311,     0.000,     0.000,     0.000,     0.000,   1
  3012,'1 ',1,   3,  28,     0.564,     0.160,     0.000,     0.000,     0.000,     0.000,   1
  3013,'1 ',1,   3,  27,    64.557,    18.291,     0.000,     0.000,     0.000,     0.000,   1
  3014,'1 ',1,   3,  28,    22.002,     6.234,     0.000,     0.000,     0.000,     0.000,   1
  3015,'1 ',1,   3,  27,     5.364,     1.520,     0.000,     0.000,     0.000,     0.000,   1
  3021,'1 ',1,   3,  27,     0.525,     0.149,     0.000,     0.000,     0.000,     0.000,   1
  3021,'2 ',1,   3,  27,     1.416,     0.401,     0.000,     0.000,     0.000,     0.000,   1
  3022,'1 ',1,   3,  27,    24.591,     6.967,     0.000,     0.000,     0.000,     0.000,   1
  3023,'1 ',1,   3,  27,    10.407,     2.949,     0.000,     0.000,     0.000,     0.000,   1
  3024,'1 ',1,   3,  28,    10.131,     2.870,     0.000,     0.000,     0.000,     0.000,   1
  3025,'1 ',1,   3,  28,    13.674,     3.874,     0.000,     0.000,     0.000,     0.000,   1
  3029,'1 ',1,   3,  28,     4.866,     1.379,     0.000,     0.000,     0.000,     0.000,   1
  3030,'1 ',1,   3,  27,   129.720,    36.754,     0.000,     0.000,     0.000,     0.000,   1
  3031,'1 ',1,   3,  27,    14.733,     4.174,     0.000,     0.000,     0.000,     0.000,   1
  3032,'1 ',1,   3,  27,    72.864,    20.645,     0.000,     0.000,     0.000,     0.000,   1
  3035,'1 ',1,   3,  28,     3.465,     0.982,     0.000,     0.000,     0.000,     0.000,   1
  3036,'1 ',1,   3,  28,     1.299,     0.368,     0.000,     0.000,     0.000,     0.000,   1
  3036,'2 ',1,   3,  28,     4.503,     1.276,     0.000,     0.000,     0.000,     0.000,   1
  3040,'1 ',1,   3,  27,    14.607,     4.139,     0.000,     0.000,     0.000,     0.000,   1
  3042,'1 ',1,   3,  27,     5.016,     1.421,     0.000,     0.000,     0.000,     0.000,   1
  3042,'2 ',1,   3,  27,     3.738,     1.059,     0.000,     0.000,     0.000,     0.000,   1
  3049,'1 ',1,   3,  27,    10.584,     2.999,     0.000,     0.000,     0.000,     0.000,   1
  3051,'1 ',1,   3,  28,     0.843,     0.239,     0.000,     0.000,     0.000,     0.000,   1
  3051,'2 ',1,   3,  28,   144.447,    40.927,     0.000,     0.000,     0.000,     0.000,   1
  3052,'1 ',1,   3,  28,     8.076,     2.288,     0.000,     0.000,     0.000,     0.000,   1
  3066,'1 ',1,   3,  28,    22.035,     6.243,     0.000,     0.000,     0.000,     0.000,   1
  3069,'1 ',1,   3,  27,     3.813,     1.080,     0.000,     0.000,     0.000,     0.000,   1
  3072,'1 ',1,   3,  27,     5.985,     1.696,     0.000,     0.000,     0.000,     0.000,   1
  3075,'1 ',1,   3,  28,    12.183,     3.452,     0.000,     0.000,     0.000,     0.000,   1
  3076,'1 ',1,   3,  28,    10.794,     3.058,     0.000,     0.000,     0.000,     0.000,   1
  3077,'1 ',1,   3,  27,    68.655,    19.452,     0.000,     0.000,     0.000,     0.000,   1
  3093,'1 ',1,   3,  28,     5.046,     1.430,     0.000,     0.000,     0.000,     0.000,   1
  3099,'1 ',1,   3,  27,    12.078,     3.422,     0.000,     0.000,     0.000,     0.000,   1
  3100,'1 ',1,   3,  27,     8.526,     2.416,     0.000,     0.000,     0.000,     0.000,   1
  3101,'1 ',1,   3,  28,     0.105,     0.030,     0.000,     0.000,     0.000,     0.000,   1
  3101,'2 ',1,   3,  28,     2.793,     0.791,     0.000,     0.000,     0.000,     0.000,   1
  3101,'3 ',1,   3,  28,     6.534,     1.851,     0.000,     0.000,     0.000,     0.000,   1
  3102,'1 ',1,   3,  27,    75.255,    21.322,     0.000,     0.000,     0.000,     0.000,   1
  3103,'1 ',1,   3,  27,     0.333,     0.094,     0.000,     0.000,     0.000,     0.000,   1
  3103,'2 ',1,   3,  27,    38.985,    11.046,     0.000,     0.000,     0.000,     0.000,   1
...
0 / END OF LOAD DATA, BEGIN GENERATOR DATA
  1004,'1 ',   158.250,   -30.380,    44.940,   -30.380,1.01000,     0,   253.200,   0.00000,   1.00000,   0.00000,   0.00000,1.00000,1,  100.0,   211.000,    63.300,   1,1.0000
  1006,'1 ',    25.730,    -4.940,     7.310,    -4.940,1.00000,     0,    41.160,   0.00000,   1.00000,   0.00000,   0.00000,1.00000,1,  100.0,    34.300,    10.290,   1,1.0000
  1009,'1 ',    61.870,   -11.880,    17.570,   -11.880,1.00000,     0,    99.000,   0.00000,   1.00000,   0.00000,   0.00000,1.00000,1,  100.0,    82.500,    24.750,   1,1.0000
  1011,'1 ',    10.000,     0.000,     0.000,     0.000,1.00000,     0,    12.000,   0.00000,   1.00000,   0.00000,   0.00000,1.00000,1,  100.0,    10.000,     3.000,   1,1.0000
  1021,'1 ',   149.630,   -28.730,    42.490,   -28.730,1.00000,     0,   239.400,   0.00000,   1.00000,   0.00000,   0.00000,1.00000,1,  100.0,   199.500,    59.850,   1,1.0000
  1023,'1 ',   135.000,     0.038,    38.340,   -25.920,1.01000,     0,   216.000,   0.00000,   1.00000,   0.00000,   0.00000,1.00000,1,  100.0,   180.000,    54.000,   1,1.0000
  1026,'1 ',    93.150,    -6.808,    26.450,   -17.880,1.00000,     0,   149.040,   0.00000,   1.00000,   0.00000,   0.00000,1.00000,1,  100.0,   124.200,    37.260,   1,1.0000
  1033,'1 ',   208.500,   -40.030,    59.210,   -40.030,1.00000,     0,   333.600,   0.00000,   1.00000,   0.00000,   0.00000,1.00000,1,  100.0,   278.000,    83.400,   1,1.0000
  1035,'1 ',    67.500,    -9.356,    19.170,   -12.960,1.00000,     0,   108.000,   0.00000,   1.00000,   0.00000,   0.00000,1.00000,1,  100.0,    90.000,    27.000,   1,1.0000
  1039,'1 ',   110.630,   -21.007,    31.420,   -21.240,1.00000,     0,   177.000,   0.00000,   1.00000,   0.00000,   0.00000,1.00000,1,  100.0,   147.500,    44.250,   1,1.0000
  1042,'1 ',     0.000,   -10.549,    25.960,   -17.550,1.00000,     0,   146.280,   0.00000,   1.00000,   0.00000,   0.00000,1.00000,0,  100.0,   121.900,    36.570,   1,1.0000
  1043,'1 ',    44.100,    -3.764,    12.520,    -8.470,1.00000,     0,    70.560,   0.00000,   1.00000,   0.00000,   0.00000,1.00000,1,  100.0,    58.800,    17.640,   1,1.0000
  1048,'1 ',     0.000,     0.000,   165.530,   -36.100,1.00000,     0,   390.240,   0.00000,   0.35000,   0.00000,   0.00000,1.00000,0,  100.0,   325.200,    97.560,   1,1.0000
  1049,'1 ',     0.000,     0.000,   165.530,   -36.100,1.00000,     0,   390.240,   0.00000,   0.23000,   0.00000,   0.00000,1.00000,0,  100.0,   325.200,    97.560,   1,1.0000
  1050,'1 ',    89.400,    -6.971,    45.500,    -9.920,1.00000,     0,   107.280,   0.00000,   0.15000,   0.00000,   0.00000,1.00000,1,  100.0,    89.400,    26.820,   1,1.0000
  1051,'1 ',    89.400,    -5.069,    45.500,    -9.920,1.00000,     0,   107.280,   0.00000,   0.31000,   0.00000,   0.00000,1.00000,1,  100.0,    89.400,    26.820,   1,1.0000
  1052,'1 ',    89.400,    -9.920,    45.500,    -9.920,1.00000,     0,   107.280,   0.00000,   0.26000,   0.00000,   0.00000,1.00000,1,  100.0,    89.400,    26.820,   1,1.0000
  1053,'1 ',     0.000,     0.000,    91.010,   -19.850,1.00000,     0,   214.560,   0.00000,   0.28000,   0.00000,   0.00000,1.00000,0,  100.0,   178.800,    53.640,   1,1.0000
  1057,'1 ',     0.000,    -7.656,    25.560,   -17.280,1.00000,     0,   144.000,   0.00000,   1.00000,   0.00000,   0.00000,1.00000,0,  100.0,   120.000,    36.000,   1,1.0000
  1059,'1 ',     0.000,     0.000,     2.850,    -0.620,1.04000,     0,     6.720,   0.00000,   0.31000,   0.00000,   0.00000,1.00000,0,  100.0,     5.600,     1.680,   1,1.0000
  1060,'1 ',     0.000,     0.000,     1.020,    -0.220,1.04000,     0,     2.400,   0.00000,   0.18000,   0.00000,   0.00000,1.00000,0,  100.0,     2.000,     0.600,   1,1.0000
  1062,'1 ',     0.000,     0.000,     0.000,     0.000,1.01000,     0,     1.800,   0.00000,   1.00000,   0.00000,   0.00000,1.00000,0,  100.0,     1.500,     0.450,   1,1.0000
  1063,'1 ',     0.000,     0.000,     0.000,     0.000,1.01000,     0,   276.000,   0.00000,   1.00000,   0.00000,   0.00000,1.00000,0,  100.0,   230.000,    69.000,   1,1.0000
  1066,'1 ',   106.880,    -3.834,    30.350,   -20.520,1.00000,     0,   171.000,   0.00000,   1.00000,   0.00000,   0.00000,1.00000,1,  100.0,   142.500,    42.750,   1,1.0000
  1070,'1 ',   120.380,    17.671,    34.190,   -23.110,1.04000,     0,   192.600,   0.00000,   1.00000,   0.00000,   0.00000,1.00000,1,  100.0,   160.500,    48.150,   1,1.0000
  1072,'1 ',   192.130,    20.926,    97.800,   -21.330,1.01000,     0,   230.560,   0.00000,   0.29000,   0.00000,   0.00000,1.00000,1,  100.0,   192.130,    57.640,   1,1.0000
  1073,'1 ',   192.130,    29.981,    97.800,   -21.330,1.01000,     0,   230.560,   0.00000,   0.31000,   0.00000,   0.00000,1.00000,1,  100.0,   192.130,    57.640,   1,1.0000
  1074,'1 ',   192.130,    25.857,    97.800,   -21.330,1.01000,     0,   230.560,   0.00000,   0.40000,   0.00000,   0.00000,1.00000,1,  100.0,   192.130,    57.640,   1,1.0000
  1075,'1 ',   192.130,    25.863,    97.800,   -21.330,1.01000,     0,   230.560,   0.00000,   0.27000,   0.00000,   0.00000,1.00000,1,  100.0,   192.130,    57.640,   1,1.0000
  1076,'1 ',     0.000,     0.000,    97.800,   -21.330,1.01000,     0,   230.560,   0.00000,   0.13000,   0.00000,   0.00000,1.00000,0,  100.0,   192.130,    57.640,   1,1.0000
  1077,'1 ',     0.000,     0.000,    97.800,   -21.330,1.01000,     0,   230.560,   0.00000,   0.39000,   0.00000,   0.00000,1.00000,0,  100.0,   192.130,    57.640,   1,1.0000
  1078,'1 ',    95.500,    13.707,    48.610,   -10.600,1.01000,     0,   114.600,   0.00000,   0.12000,   0.00000,   0.00000,1.00000,1,  100.0,    95.500,    28.650,   1,1.0000
  1079,'1 ',    95.500,   -10.600,    48.610,   -10.600,1.01000,     0,   114.600,   0.00000,   0.44000,   0.00000,   0.00000,1.00000,1,  100.0,    95.500,    28.650,   1,1.0000
  1080,'1 ',    95.500,    10.715,    48.610,   -10.600,1.01000,     0,   114.600,   0.00000,   0.13000,   0.00000,   0.00000,1.00000,1,  100.0,    95.500,    28.650,   1,1.0000
  1081,'1 ',     0.000,     0.000,   145.830,   -31.800,1.01000,     0,   343.800,   0.00000,   0.15000,   0.00000,   0.00000,1.00000,0,  100.0,   286.500,    85.950,   1,1.0000
  1082,'1 ',   112.500,   -21.600,    31.950,   -21.600,1.00000,     0,   180.000,   0.00000,   1.00000,   0.00000,   0.00000,1.00000,1,  100.0,   150.000,    45.000,   1,1.0000
  1084,'1 ',    86.620,    24.600,    24.600,   -16.630,1.04000,     0,   138.600,   0.00000,   1.00000,   0.00000,   0.00000,1.00000,1,  100.0,   115.500,    34.650,   1,1.0000
  1088,'1 ',    56.250,    -3.484,    15.970,   -10.800,1.00000,     0,    90.000,   0.00000,   1.00000,   0.00000,   0.00000,1.00000,1,  100.0,    75.000,    22.500,   1,1.0000
  1090,'1 ',   114.370,    24.201,    32.480,   -21.960,1.02000,     0,   183.000,   0.00000,   1.00000,   0.00000,   0.00000,1.00000,1,  100.0,   152.500,    45.750,   1,1.0000
  1090,'2 ',    27.000,     7.670,     7.670,    -5.180,1.02000,     0,    43.200,   0.00000,   1.00000,   0.00000,   0.00000,1.00000,1,  100.0,    36.000,    10.800,   1,1.0000
  2004,'1 ',     0.000,     0.000,   199.430,   -43.490,1.02000,     0,   470.160,   0.00000,   0.39000,   0.00000,   0.00000,1.00000,0,  100.0,   391.800,   117.540,   1,1.0000
  2005,'1 ',     0.000,     0.000,   199.430,   -43.490,1.02000,     0,   470.160,   0.00000,   0.23000,   0.00000,   0.00000,1.00000,0,  100.0,   391.800,   117.540,   1,1.0000
  2006,'1 ',     0.000,     0.000,   199.430,   -43.490,1.02000,     0,   470.160,   0.00000,   0.47000,   0.00000,   0.00000,1.00000,0,  100.0,   391.800,   117.540,   1,1.0000
  2013,'1 ',   150.450,   -28.890,    42.730,   -28.890,1.00000,     0,   240.720,   0.00000,   1.00000,   0.00000,   0.00000,1.00000,1,  100.0,   200.600,    60.180,   1,1.0000
  2019,'1 ',     0.000,    46.430,    46.430,   -31.390,1.04000,     0,   261.600,   0.00000,   1.00000,   0.00000,   0.00000,1.00000,0,  100.0,   218.000,    65.400,   1,1.0000
  2023,'1 ',    83.330,     5.955,    42.420,    -9.250,1.02000,     0,   100.000,   0.00000,   0.14000,   0.00000,   0.00000,1.00000,1,  100.0,    83.330,    25.000,   1,1.0000
  2024,'1 ',   166.670,     9.389,    84.830,   -18.500,1.02000,     0,   200.000,   0.00000,   0.31000,   0.00000,   0.00000,1.00000,1,  100.0,   166.670,    50.000,   1,1.0000
  2042,'1 ',    59.700,   -11.460,    16.950,   -11.460,1.01000,     0,    95.520,   0.00000,   1.00000,   0.00000,   0.00000,1.00000,1,  100.0,    79.600,    23.880,   1,1.0000
  2056,'1 ',     0.000,     0.000,     2.800,    -0.730,0.99000,     0,     7.200,   0.00000,   0.31000,   0.00000,   0.00000,1.00000,0,  100.0,     6.000,     1.800,   1,1.0000
  2057,'1 ',   417.600,   -87.840,   335.520,   -87.840,0.99000,     0,   864.000,   0.00000,   0.36000,   0.00000,   0.00000,1.00000,1,  100.0,   720.000,   216.000,   1,1.0000
  2059,'1 ',    60.000,   -11.520,    17.040,   -11.520,1.00000,     0,    96.000,   0.00000,   1.00000,   0.00000,   0.00000,1.00000,1,  100.0,    80.000,    24.000,   1,1.0000
  2062,'1 ',   101.550,   -16.092,    28.840,   -19.500,1.02000,     0,   162.480,   0.00000,   1.00000,   0.00000,   0.00000,1.00000,1,  100.0,   135.400,    40.620,   1,1.0000
  2071,'1 ',   112.500,   -13.073,    31.950,   -21.600,1.00000,     0,   180.000,   0.00000,   1.00000,   0.00000,   0.00000,1.00000,1,  100.0,   150.000,    45.000,   1,1.0000
  2076,'1 ',    22.500,     6.390,     6.390,    -4.320,1.04000,     0,    36.000,   0.00000,   1.00000,   0.00000,   0.00000,1.00000,1,  100.0,    30.000,     9.000,   1,1.0000
  2078,'1 ',    84.380,   -10.036,    23.960,   -16.200,1.02000,     0,   135.000,   0.00000,   1.00000,   0.00000,   0.00000,1.00000,1,  100.0,   112.500,    33.750,   1,1.0000
  2083,'1 ',    20.000,     3.888,    10.180,    -2.220,1.02000,     0,    24.000,   0.00000,   0.50000,   0.00000,   0.00000,1.00000,1,  100.0,    20.000,     6.000,   1,1.0000
  2084,'1 ',     0.000,     0.000,    10.180,    -2.220,1.02000,     0,    24.000,   0.00000,   0.20000,   0.00000,   0.00000,1.00000,0,  100.0,    20.000,     6.000,   1,1.0000
  2085,'1 ',     0.000,     0.000,    20.360,    -4.440,1.02000,     0,    48.000,   0.00000,   0.39000,   0.00000,   0.00000,1.00000,0,  100.0,    40.000,    12.000,   1,1.0000
  2089,'1 ',    50.700,    -5.242,    14.400,    -9.730,1.00000,     0,    81.120,   0.00000,   1.00000,   0.00000,   0.00000,1.00000,1,  100.0,    67.600,    20.280,   1,1.0000
  2094,'1 ',     0.000,     0.000,     2.130,    -1.440,1.00000,     0,    12.000,   0.00000,   1.00000,   0.00000,   0.00000,1.00000,0,  100.0,    10.000,     3.000,   1,1.0000
  2095,'1 ',     0.000,     0.000,    16.930,   -11.450,1.00000,     0,    95.400,   0.00000,   1.00000,   0.00000,   0.00000,1.00000,0,  100.0,    79.500,    23.850,   1,1.0000
  2099,'1 ',     7.500,    -1.440,     2.130,    -1.440,1.02000,     0,    12.000,   0.00000,   1.00000,   0.00000,   0.00000,1.00000,1,  100.0,    10.000,     3.000,   1,1.0000
  2100,'1 ',   112.500,   -21.600,    31.950,   -21.600,1.02000,     0,   180.000,   0.00000,   1.00000,   0.00000,   0.00000,1.00000,1,  100.0,   150.000,    45.000,   1,1.0000
  2103,'1 ',     0.000,     0.000,   136.280,   -29.720,1.00000,     0,   321.280,   0.00000,   0.11000,   0.00000,   0.00000,1.00000,0,  100.0,   267.730,    80.320,   1,1.0000
  2104,'1 ',     0.000,     0.000,   136.280,   -29.720,1.00000,     0,   321.280,   0.00000,   0.11000,   0.00000,   0.00000,1.00000,0,  100.0,   267.730,    80.320,   1,1.0000
  2105,'1 ',     0.000,     0.000,   136.280,   -29.720,1.00000,     0,   321.280,   0.00000,   0.42000,   0.00000,   0.00000,1.00000,0,  100.0,   267.730,    80.320,   1,1.0000
  2115,'1 ',   184.720,   -20.500,    94.020,   -20.500,1.00000,     0,   221.660,   0.00000,   0.34000,   0.00000,   0.00000,1.00000,1,  100.0,   184.720,    55.410,   1,1.0000
  2116,'1 ',   184.720,   -20.500,    94.020,   -20.500,1.00000,     0,   221.660,   0.00000,   0.13000,   0.00000,   0.00000,1.00000,1,  100.0,   184.720,    55.410,   1,1.0000
  2117,'1 ',   184.720,   -20.500,    94.020,   -20.500,1.00000,     0,   221.660,   0.00000,   0.39000,   0.00000,   0.00000,1.00000,1,  100.0,   184.720,    55.410,   1,1.0000
  2118,'1 ',   184.720,   -20.500,    94.020,   -20.500,1.00000,     0,   221.660,   0.00000,   0.12000,   0.00000,   0.00000,1.00000,1,  100.0,   184.720,    55.410,   1,1.0000
  2119,'1 ',   184.720,   -20.500,    94.020,   -20.500,1.00000,     0,   221.660,   0.00000,   0.47000,   0.00000,   0.00000,1.00000,1,  100.0,   184.720,    55.410,   1,1.0000
  2120,'1 ',   184.720,   -11.779,    94.020,   -20.500,1.01000,     0,   221.660,   0.00000,   0.36000,   0.00000,   0.00000,1.00000,1,  100.0,   184.720,    55.410,   1,1.0000
  2123,'1 ',   136.280,   -26.160,    38.700,   -26.160,1.00000,     0,   218.040,   0.00000,   1.00000,   0.00000,   0.00000,1.00000,1,  100.0,   181.700,    54.510,   1,1.0000
  2127,'1 ',   216.450,   -41.560,    61.470,   -41.560,1.04000,     0,   346.320,   0.00000,   1.00000,   0.00000,   0.00000,1.00000,1,  100.0,   288.600,    86.580,   1,1.0000
  3004,'1 ',    28.130,    -5.400,     7.990,    -5.400,1.00000,     0,    45.000,   0.00000,   1.00000,   0.00000,   0.00000,1.00000,1,  100.0,    37.500,    11.250,   1,1.0000
  3017,'1 ',   127.130,    -2.333,    36.100,   -24.410,1.01000,     0,   203.400,   0.00000,   1.00000,   0.00000,   0.00000,1.00000,1,  100.0,   169.500,    50.850,   1,1.0000
  3020,'1 ',   112.500,    -2.039,    31.950,   -21.600,1.03000,     0,   180.000,   0.00000,   1.00000,   0.00000,   0.00000,1.00000,1,  100.0,   150.000,    45.000,   1,1.0000
  3028,'1 ',   150.000,    23.365,    42.600,   -28.800,1.04000,     0,   240.000,   0.00000,   1.00000,   0.00000,   0.00000,1.00000,1,  100.0,   200.000,    60.000,   1,1.0000
  3034,'1 ',    97.870,    17.108,    27.800,   -18.790,1.03000,     0,   156.600,   0.00000,   1.00000,   0.00000,   0.00000,1.00000,1,  100.0,   130.500,    39.150,   1,1.0000
  3039,'1 ',   156.750,    30.288,    44.520,   -30.100,1.04000,     0,   250.800,   0.00000,   1.00000,   0.00000,   0.00000,1.00000,1,  100.0,   209.000,    62.700,   1,1.0000
  3043,'1 ',     0.000,     0.000,     0.660,    -0.140,1.04000,     0,     1.560,   0.00000,   0.32000,   0.00000,   0.00000,1.00000,0,  100.0,     1.300,     0.390,   1,1.0000
  3044,'1 ',     0.000,     0.000,    45.500,    -9.920,1.04000,     0,   107.280,   0.00000,   0.18000,   0.00000,   0.00000,1.00000,0,  100.0,    89.400,    26.820,   1,1.0000
  3045,'1 ',     0.000,     0.000,   227.520,   -49.620,1.04000,     0,   536.400,   0.00000,   0.42000,   0.00000,   0.00000,1.00000,0,  100.0,   447.000,   134.100,   1,1.0000
  3048,'1 ',   180.750,    51.330,    51.330,   -34.700,1.04000,     0,   289.200,   0.00000,   1.00000,   0.00000,   0.00000,1.00000,1,  100.0,   241.000,    72.300,   1,1.0000
  3055,'1 ',   183.880,    30.025,    52.220,   -35.300,1.04000,     0,   294.200,   0.00000,   1.00000,   0.00000,   0.00000,1.00000,1,  100.0,   245.170,    73.550,   1,1.0000
  3056,'1 ',   183.880,    21.078,    52.220,   -35.300,1.04000,     0,   294.200,   0.00000,   1.00000,   0.00000,   0.00000,1.00000,1,  100.0,   245.170,    73.550,   1,1.0000
  3057,'1 ',   183.880,    19.371,    52.220,   -35.300,1.04000,     0,   294.200,   0.00000,   1.00000,   0.00000,   0.00000,1.00000,1,  100.0,   245.170,    73.550,   1,1.0000
  3060,'1 ',   124.220,    10.868,    35.280,   -23.850,1.04000,     0,   198.750,   0.00000,   1.00000,   0.00000,   0.00000,1.00000,1,  100.0,   165.630,    49.690,   1,1.0000
  3061,'1 ',   124.220,    10.706,    35.280,   -23.850,1.04000,     0,   198.750,   0.00000,   1.00000,   0.00000,   0.00000,1.00000,1,  100.0,   165.630,    49.690,   1,1.0000
  3062,'1 ',   124.220,    13.091,    35.280,   -23.850,1.04000,     0,   198.750,   0.00000,   1.00000,   0.00000,   0.00000,1.00000,1,  100.0,   165.630,    49.690,   1,1.0000
  3063,'1 ',   124.220,    10.388,    35.280,   -23.850,1.04000,     0,   198.750,   0.00000,   1.00000,   0.00000,   0.00000,1.00000,1,  100.0,   165.630,    49.690,   1,1.0000
  3065,'1 ',    60.370,   -11.590,    17.150,   -11.590,1.00000,     0,    96.600,   0.00000,   1.00000,   0.00000,   0.00000,1.00000,1,  100.0,    80.500,    24.150,   1,1.0000
  3068,'1 ',   112.500,    23.414,    31.950,   -21.600,1.04000,     0,   180.000,   0.00000,   1.00000,   0.00000,   0.00000,1.00000,1,  100.0,   150.000,    45.000,   1,1.0000
  3071,'1 ',   127.650,   -24.510,    36.250,   -24.510,1.00000,     0,   204.240,   0.00000,   1.00000,   0.00000,   0.00000,1.00000,1,  100.0,   170.200,    51.060,   1,1.0000
  3074,'1 ',    74.850,    -7.266,    21.260,   -14.370,1.00000,     0,   119.760,   0.00000,   1.00000,   0.00000,   0.00000,1.00000,1,  100.0,    99.800,    29.940,   1,1.0000
  3081,'1 ',   186.750,    23.703,    53.040,   -35.860,1.04000,     0,   298.800,   0.00000,   1.00000,   0.00000,   0.00000,1.00000,1,  100.0,   249.000,    74.700,   1,1.0000
  3084,'1 ',   174.370,   -13.880,    49.520,   -33.480,1.00000,     0,   279.000,   0.00000,   1.00000,   0.00000,   0.00000,1.00000,1,  100.0,   232.500,    69.750,   1,1.0000
  3086,'1 ',    56.250,    -2.008,    15.970,   -10.800,1.00000,     0,    90.000,   0.00000,   1.00000,   0.00000,   0.00000,1.00000,1,  100.0,    75.000,    22.500,   1,1.0000
  3087,'1 ',     0.000,     0.000,    15.970,   -10.800,1.00000,     0,    90.000,   0.00000,   1.00000,   0.00000,   0.00000,1.00000,0,  100.0,    75.000,    22.500,   1,1.0000
  3092,'1 ',   150.000,    18.475,    42.600,   -28.800,1.04000,     0,   240.000,   0.00000,   1.00000,   0.00000,   0.00000,1.00000,1,  100.0,   200.000,    60.000,   1,1.0000
  3095,'1 ',    90.450,    18.627,    25.690,   -17.370,1.04000,     0,   144.720,   0.00000,   1.00000,   0.00000,   0.00000,1.00000,1,  100.0,   120.600,    36.180,   1,1.0000
  3098,'1 ',   120.000,    19.649,    34.080,   -23.040,1.04000,     0,   192.000,   0.00000,   1.00000,   0.00000,   0.00000,1.00000,1,  100.0,   160.000,    48.000,   1,1.0000
  3105,'1 ',    44.500,    -0.740,    17.070,    -0.740,1.00000,     0,    46.725,   0.00000,   0.24000,   0.00000,   0.00000,1.00000,1,  100.0,    44.500,     0.000,   1,1.0000
  3106,'1 ',   162.800,    22.550,    62.480,    -2.690,1.00000,     0,   170.940,   0.00000,   0.27000,   0.00000,   0.00000,1.00000,1,  100.0,   162.800,     0.000,   1,1.0000
  3110,'1 ',    63.000,    12.880,    17.890,   -12.100,1.04000,     0,   100.800,   0.00000,   1.00000,   0.00000,   0.00000,1.00000,1,  100.0,    84.000,    25.200,   1,1.0000
  3112,'1 ',    56.100,    -3.764,    15.930,   -10.770,1.00000,     0,    89.760,   0.00000,   1.00000,   0.00000,   0.00000,1.00000,1,  100.0,    74.800,    22.440,   1,1.0000
  3113,'1 ',    56.100,    -3.077,    15.930,   -10.770,1.00000,     0,    89.760,   0.00000,   1.00000,   0.00000,   0.00000,1.00000,1,  100.0,    74.800,    22.440,   1,1.0000
  3117,'1 ',    47.250,    -5.152,    13.420,    -9.070,1.00000,     0,    75.600,   0.00000,   1.00000,   0.00000,   0.00000,1.00000,1,  100.0,    63.000,    18.900,   1,1.0000
  3118,'1 ',    90.000,    -8.625,    25.560,   -17.280,1.00000,     0,   144.000,   0.00000,   1.00000,   0.00000,   0.00000,1.00000,1,  100.0,   120.000,    36.000,   1,1.0000
  3120,'1 ',    29.700,     0.000,     0.000,     0.000,1.00000,     0,    47.520,   0.00000,   1.00000,   0.00000,   0.00000,1.00000,1,  100.0,    39.600,    11.880,   1,1.0000
  3122,'1 ',   147.750,   -13.948,    41.960,   -28.370,1.00000,     0,   236.400,   0.00000,   1.00000,   0.00000,   0.00000,1.00000,1,  100.0,   197.000,    59.100,   1,1.0000
  3127,'1 ',   101.250,   -19.440,    28.760,   -19.440,1.00000,     0,   162.000,   0.00000,   1.00000,   0.00000,   0.00000,1.00000,1,  100.0,   135.000,    40.500,   1,1.0000
  3129,'1 ',    94.880,   -18.220,    26.940,   -18.220,1.00000,     0,   151.800,   0.00000,   1.00000,   0.00000,   0.00000,1.00000,1,  100.0,   126.500,    37.950,   1,1.0000
  3131,'1 ',    85.500,    14.353,    24.280,   -16.420,1.02000,     0,   136.800,   0.00000,   1.00000,   0.00000,   0.00000,1.00000,1,  100.0,   114.000,    34.200,   1,1.0000
  3133,'1 ',     0.000,    26.110,    26.110,    -5.690,1.04000,     0,    61.560,   0.00000,   0.45000,   0.00000,   0.00000,1.00000,0,  100.0,    51.300,    15.390,   1,1.0000
  3133,'2 ',     0.000,     0.000,    26.110,    -5.690,1.04000,     0,    61.560,   0.00000,   0.24000,   0.00000,   0.00000,1.00000,0,  100.0,    51.300,    15.390,   1,1.0000
  3133,'3 ',     0.000,     0.000,    26.110,    -5.690,1.04000,     0,    61.560,   0.00000,   0.26000,   0.00000,   0.00000,1.00000,0,  100.0,    51.300,    15.390,   1,1.0000
  3137,'1 ',    75.900,    21.560,    21.560,   -14.570,1.03000,     0,   121.440,   0.00000,   1.00000,   0.00000,   0.00000,1.00000,1,  100.0,   101.200,    30.360,   1,1.0000
  3141,'1 ',    68.620,   -13.180,    19.490,   -13.180,1.00000,     0,   109.800,   0.00000,   1.00000,   0.00000,   0.00000,1.00000,1,  100.0,    91.500,    27.450,   1,1.0000
  4010,'1 ',   151.200,    14.092,    42.940,   -29.030,1.03000,     0,   241.920,   0.00000,   1.00000,   0.00000,   0.00000,1.00000,1,  100.0,   201.600,    60.480,   1,1.0000
  4026,'1 ',   410.000,    39.818,   191.060,   -50.020,1.03000,     0,   492.000,   0.00000,   0.27000,   0.00000,   0.00000,1.00000,1,  100.0,   410.000,   123.000,   1,1.0000
  4030,'1 ',   448.128,   -66.832,   290.040,   -75.930,1.01000,     0,   746.880,   0.00000,   0.19000,   0.00000,   0.00000,1.00000,1,  100.0,   622.400,   186.720,   1,1.0000
  4045,'1 ',    93.400,    12.034,    35.860,    -1.540,1.02000,     0,    98.070,   0.00000,   0.59000,   0.00000,   0.00000,1.00000,1,  100.0,    93.400,     0.000,   1,1.0000
  4046,'1 ',     6.720,     4.619,    10.940,    -0.470,1.02000,     0,    29.925,   0.00000,   0.28000,   0.00000,   0.00000,1.00000,1,  100.0,    28.500,     0.000,   1,1.0000
  4047,'1 ',   195.700,    17.831,    75.100,    -3.230,1.02000,     0,   205.485,   0.00000,   0.38000,   0.00000,   0.00000,1.00000,1,  100.0,   195.700,     0.000,   1,1.0000
  4050,'1 ',   150.000,   -15.999,    42.600,   -28.800,1.00000,     0,   240.000,   0.00000,   1.00000,   0.00000,   0.00000,1.00000,1,  100.0,   200.000,    60.000,   1,1.0000
  4052,'1 ',    44.200,    22.500,    22.500,    -4.910,1.04000,     0,    53.040,   0.00000,   0.13000,   0.00000,   0.00000,1.00000,1,  100.0,    44.200,    13.260,   1,1.0000
  4058,'1 ',   144.000,    20.160,    73.300,   -15.980,1.03000,     0,   172.800,   0.00000,   0.47000,   0.00000,   0.00000,1.00000,1,  100.0,   144.000,    43.200,   1,1.0000
...